[General]
network = simulation
cpu-time-limit = 60s
debug-on-errors = true
sim-time-limit = 1000s
seed-set = ${repetition}
repeat = 10
simulation.numTX = 1
simulation.radius = 27
simulation.TXNode[*].packGen.messageSize = 64
simulation.TXNode[*].packGen.iatDistribution = 0.01
simulation.RXNode.packSink.outFile = "./exp1/exp1_radius_27m"
simulation.TXNode[*].trans.txPowerDBm = 0
simulation.TXNode[*].trans.bitRate = 250000
simulation.TXNode[*].trans.csThreshDBm = -50
simulation.TXNode[*].trans.noisePowerDBm = -120
simulation.TXNode[*].trans.turnaroundTime = 0.001
simulation.TXNode[*].trans.csTime = 0.000125
simulation.RXNode.trans.txPowerDBm = 0
simulation.RXNode.trans.bitRate = 250000
simulation.RXNode.trans.csThreshDBm = -50
simulation.RXNode.trans.noisePowerDBm = -120
simulation.RXNode.trans.turnaroundTime = 0.001
simulation.RXNode.trans.csTime = 0.000125
simulation.TXNode[*].MAC.backoffDistribution = exponential(0.03)
simulation.TXNode[*].MAC.bufferSize = 5
simulation.TXNode[*].MAC.maxBackoffs = 5
simulation.RXNode.MAC.backoffDistribution = exponential(0.03)
simulation.RXNode.MAC.bufferSize = 5
simulation.RXNode.MAC.maxBackoffs = 5

