[General]
network = simulation
debug-on-errors = true
seed-set = ${repetition}
repeat = 10
sim-time-limit = 1000s
simulation.numTX = 2
simulation.radius = 20
simulation.TXNode[*].packGen.messageSize = 64
simulation.TXNode[*].packGen.iatDistribution = 0.02
simulation.RXNode.packSink.outFile = "./exp2/exp2_numTX_2"
simulation.RXNode.packSink.outFile2 = "./exp2/exp2_numTX_2_ReceivedPackets"
simulation.TXNode[*].packGen.outFile = "./exp2/generator_2_TX"
simulation.TXNode[*].MAC.outFile = "./exp2/mac_2_TX"
simulation.RXNode.MAC.outFile = "./exp2/mac_2_RX"
simulation.TXNode[*].trans.txPowerDBm = 0
simulation.TXNode[*].trans.bitRate = 250000
simulation.TXNode[*].trans.csThreshDBm = -50
simulation.TXNode[*].trans.noisePowerDBm = -120
simulation.TXNode[*].trans.turnaroundTime = 0.001
simulation.TXNode[*].trans.csTime = 0.000125
simulation.TXNode[*].trans.outFile = "./exp2/exp2_numTX_2_collisions"
simulation.RXNode.trans.outFile = "./exp2/exp2_numRX_2_collisions"
simulation.RXNode.trans.txPowerDBm = 0
simulation.RXNode.trans.bitRate = 250000
simulation.RXNode.trans.csThreshDBm = -50
simulation.RXNode.trans.noisePowerDBm = -120
simulation.RXNode.trans.turnaroundTime = 0.001
simulation.RXNode.trans.csTime = 0.000125
simulation.TXNode[*].MAC.backoffDistribution = 0.003
simulation.TXNode[*].MAC.bufferSize = 5
simulation.TXNode[*].MAC.maxBackoffs = 5
simulation.RXNode.MAC.backoffDistribution = 0.003
simulation.RXNode.MAC.bufferSize = 5
simulation.RXNode.MAC.maxBackoffs = 5

